output/1_QUEB_1/Cargas_BT_SA08_1_QUEB_1.dss
New "Load.BT_233150_M1" bus1="UC233150.1.2.3.4" phases=3 conn=delta model=2 kv=0.38 kw = 1.1890664045227075 pf=0.92 status=variable vmaxpu=1.5 vminpu=0.93 daily="RU8_SA" 
New "Load.BT_233150_M2" bus1="UC233150.1.2.3.4" phases=3 conn=delta model=3 kv=0.38 kw = 1.1890664045227075 pf=0.92 status=variable vmaxpu=1.5 vminpu=0.93 daily="RU8_SA"
 
New "Load.BT_233144_M1" bus1="UC233144.1.2.4" phases=2 conn=delta model=2 kv=0.38 kw = 0.2624796689051001 pf=0.92 status=variable vmaxpu=1.5 vminpu=0.93 daily="RU5_SA" 
New "Load.BT_233144_M2" bus1="UC233144.1.2.4" phases=2 conn=delta model=3 kv=0.38 kw = 0.2624796689051001 pf=0.92 status=variable vmaxpu=1.5 vminpu=0.93 daily="RU5_SA"
 
New "Load.BT_232530_M1" bus1="UC232530.1.2.4" phases=2 conn=delta model=2 kv=0.38 kw = 0.18780419079808297 pf=0.92 status=variable vmaxpu=1.5 vminpu=0.93 daily="RU3_SA" 
New "Load.BT_232530_M2" bus1="UC232530.1.2.4" phases=2 conn=delta model=3 kv=0.38 kw = 0.18780419079808297 pf=0.92 status=variable vmaxpu=1.5 vminpu=0.93 daily="RU3_SA"
 
New "Load.BT_231938_M1" bus1="UC231938.1.4" phases=1 conn=delta model=2 kv=0.22 kw = 0.25375263743034254 pf=0.92 status=variable vmaxpu=1.5 vminpu=0.93 daily="RU6_SA" 
New "Load.BT_231938_M2" bus1="UC231938.1.4" phases=1 conn=delta model=3 kv=0.22 kw = 0.25375263743034254 pf=0.92 status=variable vmaxpu=1.5 vminpu=0.93 daily="RU6_SA"
 
New "Load.BT_2831932_M1" bus1="UC2831932.1.4" phases=1 conn=delta model=2 kv=0.22 kw = 0.05236847628023468 pf=0.92 status=variable vmaxpu=1.5 vminpu=0.93 daily="RU3_SA" 
New "Load.BT_2831932_M2" bus1="UC2831932.1.4" phases=1 conn=delta model=3 kv=0.22 kw = 0.05236847628023468 pf=0.92 status=variable vmaxpu=1.5 vminpu=0.93 daily="RU3_SA"
 
New "Load.BT_231933_M1" bus1="UC231933.1.2.4" phases=2 conn=delta model=2 kv=0.44 kw = 1.23709680016748 pf=0.92 status=variable vmaxpu=1.5 vminpu=0.93 daily="RU5_SA" 
New "Load.BT_231933_M2" bus1="UC231933.1.2.4" phases=2 conn=delta model=3 kv=0.44 kw = 1.23709680016748 pf=0.92 status=variable vmaxpu=1.5 vminpu=0.93 daily="RU5_SA"
 
New "Load.BT_2831495_M1" bus1="UC2831495.1.4" phases=1 conn=delta model=2 kv=0.22 kw = 0.07764980965689969 pf=0.92 status=variable vmaxpu=1.5 vminpu=0.93 daily="RU3_SA" 
New "Load.BT_2831495_M2" bus1="UC2831495.1.4" phases=1 conn=delta model=3 kv=0.22 kw = 0.07764980965689969 pf=0.92 status=variable vmaxpu=1.5 vminpu=0.93 daily="RU3_SA"
 
New "Load.BT_2831490_M1" bus1="UC2831490.1.4" phases=1 conn=delta model=2 kv=0.22 kw = 0.007731018694646102 pf=0.92 status=variable vmaxpu=1.5 vminpu=0.93 daily="RU1_SA" 
New "Load.BT_2831490_M2" bus1="UC2831490.1.4" phases=1 conn=delta model=3 kv=0.22 kw = 0.007731018694646102 pf=0.92 status=variable vmaxpu=1.5 vminpu=0.93 daily="RU1_SA"
 
New "Load.BT_231251_M1" bus1="UC231251.3.4" phases=1 conn=delta model=2 kv=0.22 kw = 0.0 pf=0.92 status=variable vmaxpu=1.5 vminpu=0.93 daily="CO3_SA" 
New "Load.BT_231251_M2" bus1="UC231251.3.4" phases=1 conn=delta model=3 kv=0.22 kw = 0.0 pf=0.92 status=variable vmaxpu=1.5 vminpu=0.93 daily="CO3_SA"
 
New "Load.BT_2831192_M1" bus1="UC2831192.1.4" phases=1 conn=delta model=2 kv=0.22 kw = 0.037512280305321624 pf=0.92 status=variable vmaxpu=1.5 vminpu=0.93 daily="RU7_SA" 
New "Load.BT_2831192_M2" bus1="UC2831192.1.4" phases=1 conn=delta model=3 kv=0.22 kw = 0.037512280305321624 pf=0.92 status=variable vmaxpu=1.5 vminpu=0.93 daily="RU7_SA"
 
New "Load.BT_2831188_M1" bus1="UC2831188.1.4" phases=1 conn=delta model=2 kv=0.22 kw = 0.1256610265972666 pf=0.92 status=variable vmaxpu=1.5 vminpu=0.93 daily="PP3_SA" 
New "Load.BT_2831188_M2" bus1="UC2831188.1.4" phases=1 conn=delta model=3 kv=0.22 kw = 0.1256610265972666 pf=0.92 status=variable vmaxpu=1.5 vminpu=0.93 daily="PP3_SA"
 
New "Load.BT_230656_M1" bus1="UC230656.2.4" phases=1 conn=delta model=2 kv=0.22 kw = 0.06773288909666025 pf=0.92 status=variable vmaxpu=1.5 vminpu=0.93 daily="RU2_SA" 
New "Load.BT_230656_M2" bus1="UC230656.2.4" phases=1 conn=delta model=3 kv=0.22 kw = 0.06773288909666025 pf=0.92 status=variable vmaxpu=1.5 vminpu=0.93 daily="RU2_SA"
 
New "Load.BT_2830653_M1" bus1="UC2830653.2.4" phases=1 conn=delta model=2 kv=0.22 kw = 0.06457436058956212 pf=0.92 status=variable vmaxpu=1.5 vminpu=0.93 daily="RU2_SA" 
New "Load.BT_2830653_M2" bus1="UC2830653.2.4" phases=1 conn=delta model=3 kv=0.22 kw = 0.06457436058956212 pf=0.92 status=variable vmaxpu=1.5 vminpu=0.93 daily="RU2_SA"
 
New "Load.BT_230651_M1" bus1="UC230651.1.4" phases=1 conn=delta model=2 kv=0.22 kw = 0.2783245723632357 pf=0.92 status=variable vmaxpu=1.5 vminpu=0.93 daily="RU4_SA" 
New "Load.BT_230651_M2" bus1="UC230651.1.4" phases=1 conn=delta model=3 kv=0.22 kw = 0.2783245723632357 pf=0.92 status=variable vmaxpu=1.5 vminpu=0.93 daily="RU4_SA"
 
New "Load.BT_230555_M1" bus1="UC230555.1.4" phases=1 conn=delta model=2 kv=0.22 kw = 0.020220161240064132 pf=0.92 status=variable vmaxpu=1.5 vminpu=0.93 daily="RU4_SA" 
New "Load.BT_230555_M2" bus1="UC230555.1.4" phases=1 conn=delta model=3 kv=0.22 kw = 0.020220161240064132 pf=0.92 status=variable vmaxpu=1.5 vminpu=0.93 daily="RU4_SA"
 
New "Load.BT_228394_M1" bus1="UC228394.1.4" phases=1 conn=delta model=2 kv=0.22 kw = 0.4152342303170846 pf=0.92 status=variable vmaxpu=1.5 vminpu=0.93 daily="RU5_SA" 
New "Load.BT_228394_M2" bus1="UC228394.1.4" phases=1 conn=delta model=3 kv=0.22 kw = 0.4152342303170846 pf=0.92 status=variable vmaxpu=1.5 vminpu=0.93 daily="RU5_SA"
 
New "Load.BT_228388_M1" bus1="UC228388.1.4" phases=1 conn=delta model=2 kv=0.22 kw = 0.11951235775848609 pf=0.92 status=variable vmaxpu=1.5 vminpu=0.93 daily="RE1_SA" 
New "Load.BT_228388_M2" bus1="UC228388.1.4" phases=1 conn=delta model=3 kv=0.22 kw = 0.11951235775848609 pf=0.92 status=variable vmaxpu=1.5 vminpu=0.93 daily="RE1_SA"
 
New "Load.BT_227082_M1" bus1="UC227082.2.4" phases=1 conn=delta model=2 kv=0.22 kw = 0.0 pf=0.92 status=variable vmaxpu=1.5 vminpu=0.93 daily="RU7_SA" 
New "Load.BT_227082_M2" bus1="UC227082.2.4" phases=1 conn=delta model=3 kv=0.22 kw = 0.0 pf=0.92 status=variable vmaxpu=1.5 vminpu=0.93 daily="RU7_SA"
 
New "Load.BT_2827937_M1" bus1="UC2827937.1.4" phases=1 conn=delta model=2 kv=0.22 kw = 0.12025995744941345 pf=0.92 status=variable vmaxpu=1.5 vminpu=0.93 daily="RU7_SA" 
New "Load.BT_2827937_M2" bus1="UC2827937.1.4" phases=1 conn=delta model=3 kv=0.22 kw = 0.12025995744941345 pf=0.92 status=variable vmaxpu=1.5 vminpu=0.93 daily="RU7_SA"
 
New "Load.BT_228376_M1" bus1="UC228376.1.4" phases=1 conn=delta model=2 kv=0.22 kw = 0.2842716786103134 pf=0.92 status=variable vmaxpu=1.5 vminpu=0.93 daily="RU4_SA" 
New "Load.BT_228376_M2" bus1="UC228376.1.4" phases=1 conn=delta model=3 kv=0.22 kw = 0.2842716786103134 pf=0.92 status=variable vmaxpu=1.5 vminpu=0.93 daily="RU4_SA"
 
New "Load.BT_226217_M1" bus1="UC226217.1.4" phases=1 conn=delta model=2 kv=0.22 kw = 0.05702956376607709 pf=0.92 status=variable vmaxpu=1.5 vminpu=0.93 daily="RU8_SA" 
New "Load.BT_226217_M2" bus1="UC226217.1.4" phases=1 conn=delta model=3 kv=0.22 kw = 0.05702956376607709 pf=0.92 status=variable vmaxpu=1.5 vminpu=0.93 daily="RU8_SA"
 
New "Load.BT_226224_M1" bus1="UC226224.2.4" phases=1 conn=delta model=2 kv=0.22 kw = 0.015958377267360213 pf=0.92 status=variable vmaxpu=1.5 vminpu=0.93 daily="RE6_SA" 
New "Load.BT_226224_M2" bus1="UC226224.2.4" phases=1 conn=delta model=3 kv=0.22 kw = 0.015958377267360213 pf=0.92 status=variable vmaxpu=1.5 vminpu=0.93 daily="RE6_SA"
 
New "Load.BT_226233_M1" bus1="UC226233.1.2.3.4" phases=3 conn=delta model=2 kv=0.38 kw = 0.47279582147840543 pf=0.92 status=variable vmaxpu=1.5 vminpu=0.93 daily="CO4_SA" 
New "Load.BT_226233_M2" bus1="UC226233.1.2.3.4" phases=3 conn=delta model=3 kv=0.38 kw = 0.47279582147840543 pf=0.92 status=variable vmaxpu=1.5 vminpu=0.93 daily="CO4_SA"
 
New "Load.BT_227077_M1" bus1="UC227077.2.4" phases=1 conn=delta model=2 kv=0.22 kw = 0.19749112278389913 pf=0.92 status=variable vmaxpu=1.5 vminpu=0.93 daily="RU7_SA" 
New "Load.BT_227077_M2" bus1="UC227077.2.4" phases=1 conn=delta model=3 kv=0.22 kw = 0.19749112278389913 pf=0.92 status=variable vmaxpu=1.5 vminpu=0.93 daily="RU7_SA"
 
New "Load.BT_227073_M1" bus1="UC227073.2.4" phases=1 conn=delta model=2 kv=0.22 kw = 0.00902904763452322 pf=0.92 status=variable vmaxpu=1.5 vminpu=0.93 daily="RU3_SA" 
New "Load.BT_227073_M2" bus1="UC227073.2.4" phases=1 conn=delta model=3 kv=0.22 kw = 0.00902904763452322 pf=0.92 status=variable vmaxpu=1.5 vminpu=0.93 daily="RU3_SA"
 
New "Load.BT_2805756_M1" bus1="UC2805756.1.2.3.4" phases=3 conn=delta model=2 kv=0.38 kw = 0.262508813701046 pf=0.92 status=variable vmaxpu=1.5 vminpu=0.93 daily="RU2_SA" 
New "Load.BT_2805756_M2" bus1="UC2805756.1.2.3.4" phases=3 conn=delta model=3 kv=0.38 kw = 0.262508813701046 pf=0.92 status=variable vmaxpu=1.5 vminpu=0.93 daily="RU2_SA"
 
New "Load.BT_2805757_M1" bus1="UC2805757.1.2.3.4" phases=3 conn=delta model=2 kv=0.38 kw = 0.19933824355908306 pf=0.92 status=variable vmaxpu=1.5 vminpu=0.93 daily="RU2_SA" 
New "Load.BT_2805757_M2" bus1="UC2805757.1.2.3.4" phases=3 conn=delta model=3 kv=0.38 kw = 0.19933824355908306 pf=0.92 status=variable vmaxpu=1.5 vminpu=0.93 daily="RU2_SA"
 
New "Load.BT_2819390_M1" bus1="UC2819390.1.4" phases=1 conn=delta model=2 kv=0.22 kw = 0.5432065948718843 pf=0.92 status=variable vmaxpu=1.5 vminpu=0.93 daily="RU8_SA" 
New "Load.BT_2819390_M2" bus1="UC2819390.1.4" phases=1 conn=delta model=3 kv=0.22 kw = 0.5432065948718843 pf=0.92 status=variable vmaxpu=1.5 vminpu=0.93 daily="RU8_SA"
 
New "Load.BT_2819375_M1" bus1="UC2819375.1.4" phases=1 conn=delta model=2 kv=0.22 kw = 0.003158528507098147 pf=0.92 status=variable vmaxpu=1.5 vminpu=0.93 daily="RU2_SA" 
New "Load.BT_2819375_M2" bus1="UC2819375.1.4" phases=1 conn=delta model=3 kv=0.22 kw = 0.003158528507098147 pf=0.92 status=variable vmaxpu=1.5 vminpu=0.93 daily="RU2_SA"
 
New "Load.BT_2819355_M1" bus1="UC2819355.1.4" phases=1 conn=delta model=2 kv=0.22 kw = 0.003545435324933245 pf=0.92 status=variable vmaxpu=1.5 vminpu=0.93 daily="RU1_SA" 
New "Load.BT_2819355_M2" bus1="UC2819355.1.4" phases=1 conn=delta model=3 kv=0.22 kw = 0.003545435324933245 pf=0.92 status=variable vmaxpu=1.5 vminpu=0.93 daily="RU1_SA"
 
New "Load.BT_2822268_M1" bus1="UC2822268.2.4" phases=1 conn=delta model=2 kv=0.22 kw = 0.26198245269835363 pf=0.92 status=variable vmaxpu=1.5 vminpu=0.93 daily="RU6_SA" 
New "Load.BT_2822268_M2" bus1="UC2822268.2.4" phases=1 conn=delta model=3 kv=0.22 kw = 0.26198245269835363 pf=0.92 status=variable vmaxpu=1.5 vminpu=0.93 daily="RU6_SA"
 
New "Load.BT_2806028_M1" bus1="UC2806028.2.4" phases=1 conn=delta model=2 kv=0.22 kw = 0.2839286267463833 pf=0.92 status=variable vmaxpu=1.5 vminpu=0.93 daily="RU6_SA" 
New "Load.BT_2806028_M2" bus1="UC2806028.2.4" phases=1 conn=delta model=3 kv=0.22 kw = 0.2839286267463833 pf=0.92 status=variable vmaxpu=1.5 vminpu=0.93 daily="RU6_SA"
 
New "Load.BT_2806039_M1" bus1="UC2806039.1.2.3.4" phases=3 conn=delta model=2 kv=0.38 kw = 0.9058112391373251 pf=0.92 status=variable vmaxpu=1.5 vminpu=0.93 daily="RU7_SA" 
New "Load.BT_2806039_M2" bus1="UC2806039.1.2.3.4" phases=3 conn=delta model=3 kv=0.38 kw = 0.9058112391373251 pf=0.92 status=variable vmaxpu=1.5 vminpu=0.93 daily="RU7_SA"
 
New "Load.BT_2805793_M1" bus1="UC2805793.2.4" phases=1 conn=delta model=2 kv=0.22 kw = 0.13202575868512462 pf=0.92 status=variable vmaxpu=1.5 vminpu=0.93 daily="RU4_SA" 
New "Load.BT_2805793_M2" bus1="UC2805793.2.4" phases=1 conn=delta model=3 kv=0.22 kw = 0.13202575868512462 pf=0.92 status=variable vmaxpu=1.5 vminpu=0.93 daily="RU4_SA"
 
New "Load.BT_2805784_M1" bus1="UC2805784.1.4" phases=1 conn=delta model=2 kv=0.22 kw = 0.1441486706282107 pf=0.92 status=variable vmaxpu=1.5 vminpu=0.93 daily="RU5_SA" 
New "Load.BT_2805784_M2" bus1="UC2805784.1.4" phases=1 conn=delta model=3 kv=0.22 kw = 0.1441486706282107 pf=0.92 status=variable vmaxpu=1.5 vminpu=0.93 daily="RU5_SA"
 
New "Load.BT_2805785_M1" bus1="UC2805785.1.4" phases=1 conn=delta model=2 kv=0.22 kw = 0.0010528428356993823 pf=0.92 status=variable vmaxpu=1.5 vminpu=0.93 daily="RU2_SA" 
New "Load.BT_2805785_M2" bus1="UC2805785.1.4" phases=1 conn=delta model=3 kv=0.22 kw = 0.0010528428356993823 pf=0.92 status=variable vmaxpu=1.5 vminpu=0.93 daily="RU2_SA"
 
New "Load.BT_2805790_M1" bus1="UC2805790.2.4" phases=1 conn=delta model=2 kv=0.22 kw = 0.07530154435802053 pf=0.92 status=variable vmaxpu=1.5 vminpu=0.93 daily="RU5_SA" 
New "Load.BT_2805790_M2" bus1="UC2805790.2.4" phases=1 conn=delta model=3 kv=0.22 kw = 0.07530154435802053 pf=0.92 status=variable vmaxpu=1.5 vminpu=0.93 daily="RU5_SA"
 
New "Load.BT_2805782_M1" bus1="UC2805782.2.4" phases=1 conn=delta model=2 kv=0.22 kw = 0.06130678104853288 pf=0.92 status=variable vmaxpu=1.5 vminpu=0.93 daily="RU8_SA" 
New "Load.BT_2805782_M2" bus1="UC2805782.2.4" phases=1 conn=delta model=3 kv=0.22 kw = 0.06130678104853288 pf=0.92 status=variable vmaxpu=1.5 vminpu=0.93 daily="RU8_SA"
 
New "Load.BT_2805766_M1" bus1="UC2805766.2.4" phases=1 conn=delta model=2 kv=0.22 kw = 0.1618530336042185 pf=0.92 status=variable vmaxpu=1.5 vminpu=0.93 daily="RU6_SA" 
New "Load.BT_2805766_M2" bus1="UC2805766.2.4" phases=1 conn=delta model=3 kv=0.22 kw = 0.1618530336042185 pf=0.92 status=variable vmaxpu=1.5 vminpu=0.93 daily="RU6_SA"
 
New "Load.BT_2817050_M1" bus1="UC2817050.2.4" phases=1 conn=delta model=2 kv=0.22 kw = 0.11253684091596487 pf=0.92 status=variable vmaxpu=1.5 vminpu=0.93 daily="RU7_SA" 
New "Load.BT_2817050_M2" bus1="UC2817050.2.4" phases=1 conn=delta model=3 kv=0.22 kw = 0.11253684091596487 pf=0.92 status=variable vmaxpu=1.5 vminpu=0.93 daily="RU7_SA"
 
New "Load.BT_2818311_M1" bus1="UC2818311.2.4" phases=1 conn=delta model=2 kv=0.22 kw = 0.039306132532776934 pf=0.92 status=variable vmaxpu=1.5 vminpu=0.93 daily="RU2_SA" 
New "Load.BT_2818311_M2" bus1="UC2818311.2.4" phases=1 conn=delta model=3 kv=0.22 kw = 0.039306132532776934 pf=0.92 status=variable vmaxpu=1.5 vminpu=0.93 daily="RU2_SA"
 
New "Load.BT_2825858_M1" bus1="UC2825858.2.4" phases=1 conn=delta model=2 kv=0.22 kw = 0.1855497149088238 pf=0.92 status=variable vmaxpu=1.5 vminpu=0.93 daily="RU4_SA" 
New "Load.BT_2825858_M2" bus1="UC2825858.2.4" phases=1 conn=delta model=3 kv=0.22 kw = 0.1855497149088238 pf=0.92 status=variable vmaxpu=1.5 vminpu=0.93 daily="RU4_SA"
 
New "Load.BT_2817028_M1" bus1="UC2817028.1.4" phases=1 conn=delta model=2 kv=0.22 kw = 0.7128695470759637 pf=0.92 status=variable vmaxpu=1.5 vminpu=0.93 daily="RU8_SA" 
New "Load.BT_2817028_M2" bus1="UC2817028.1.4" phases=1 conn=delta model=3 kv=0.22 kw = 0.7128695470759637 pf=0.92 status=variable vmaxpu=1.5 vminpu=0.93 daily="RU8_SA"
 
New "Load.BT_2817013_M1" bus1="UC2817013.1.4" phases=1 conn=delta model=2 kv=0.22 kw = 0.04965976198987771 pf=0.92 status=variable vmaxpu=1.5 vminpu=0.93 daily="RU3_SA" 
New "Load.BT_2817013_M2" bus1="UC2817013.1.4" phases=1 conn=delta model=3 kv=0.22 kw = 0.04965976198987771 pf=0.92 status=variable vmaxpu=1.5 vminpu=0.93 daily="RU3_SA"
 
New "Load.BT_226211_M1" bus1="UC226211.1.4" phases=1 conn=delta model=2 kv=0.22 kw = 0.05123835133736994 pf=0.92 status=variable vmaxpu=1.5 vminpu=0.93 daily="RU2_SA" 
New "Load.BT_226211_M2" bus1="UC226211.1.4" phases=1 conn=delta model=3 kv=0.22 kw = 0.05123835133736994 pf=0.92 status=variable vmaxpu=1.5 vminpu=0.93 daily="RU2_SA"
 
New "Load.BT_205798_M1" bus1="UC205798.1.4" phases=1 conn=delta model=2 kv=0.22 kw = 0.06777138992221847 pf=0.92 status=variable vmaxpu=1.5 vminpu=0.93 daily="RU5_SA" 
New "Load.BT_205798_M2" bus1="UC205798.1.4" phases=1 conn=delta model=3 kv=0.22 kw = 0.06777138992221847 pf=0.92 status=variable vmaxpu=1.5 vminpu=0.93 daily="RU5_SA"
 
New "Load.BT_221678_M1" bus1="UC221678.1.4" phases=1 conn=delta model=2 kv=0.22 kw = 0.08035852394725666 pf=0.92 status=variable vmaxpu=1.5 vminpu=0.93 daily="RU3_SA" 
New "Load.BT_221678_M2" bus1="UC221678.1.4" phases=1 conn=delta model=3 kv=0.22 kw = 0.08035852394725666 pf=0.92 status=variable vmaxpu=1.5 vminpu=0.93 daily="RU3_SA"
 
New "Load.BT_205762_M1" bus1="UC205762.2.4" phases=1 conn=delta model=2 kv=0.22 kw = 0.42146150225390766 pf=0.92 status=variable vmaxpu=1.5 vminpu=0.93 daily="RU7_SA" 
New "Load.BT_205762_M2" bus1="UC205762.2.4" phases=1 conn=delta model=3 kv=0.22 kw = 0.42146150225390766 pf=0.92 status=variable vmaxpu=1.5 vminpu=0.93 daily="RU7_SA"
 
New "Load.BT_205763_M1" bus1="UC205763.1.2.4" phases=2 conn=delta model=2 kv=0.44 kw = 0.37973493083401777 pf=0.92 status=variable vmaxpu=1.5 vminpu=0.93 daily="RU5_SA" 
New "Load.BT_205763_M2" bus1="UC205763.1.2.4" phases=2 conn=delta model=3 kv=0.44 kw = 0.37973493083401777 pf=0.92 status=variable vmaxpu=1.5 vminpu=0.93 daily="RU5_SA"
 
New "Load.BT_205767_M1" bus1="UC205767.1.2.4" phases=2 conn=delta model=2 kv=0.44 kw = 0.05299308939686891 pf=0.92 status=variable vmaxpu=1.5 vminpu=0.93 daily="RU2_SA" 
New "Load.BT_205767_M2" bus1="UC205767.1.2.4" phases=2 conn=delta model=3 kv=0.44 kw = 0.05299308939686891 pf=0.92 status=variable vmaxpu=1.5 vminpu=0.93 daily="RU2_SA"
 
New "Load.BT_221287_M1" bus1="UC221287.1.2.3.4" phases=3 conn=delta model=2 kv=0.38 kw = 0.05895919879916541 pf=0.92 status=variable vmaxpu=1.5 vminpu=0.93 daily="RU2_SA" 
New "Load.BT_221287_M2" bus1="UC221287.1.2.3.4" phases=3 conn=delta model=3 kv=0.38 kw = 0.05895919879916541 pf=0.92 status=variable vmaxpu=1.5 vminpu=0.93 daily="RU2_SA"
 
New "Load.BT_205749_M1" bus1="UC205749.1.2.4" phases=2 conn=delta model=2 kv=0.44 kw = 0.20530642955787753 pf=0.92 status=variable vmaxpu=1.5 vminpu=0.93 daily="RU8_SA" 
New "Load.BT_205749_M2" bus1="UC205749.1.2.4" phases=2 conn=delta model=3 kv=0.44 kw = 0.20530642955787753 pf=0.92 status=variable vmaxpu=1.5 vminpu=0.93 daily="RU8_SA"
 
New "Load.BT_205751_M1" bus1="UC205751.2.4" phases=1 conn=delta model=2 kv=0.22 kw = 0.1462988136781111 pf=0.92 status=variable vmaxpu=1.5 vminpu=0.93 daily="RU4_SA" 
New "Load.BT_205751_M2" bus1="UC205751.2.4" phases=1 conn=delta model=3 kv=0.22 kw = 0.1462988136781111 pf=0.92 status=variable vmaxpu=1.5 vminpu=0.93 daily="RU4_SA"
 
New "Load.BT_205752_M1" bus1="UC205752.1.2.3.4" phases=3 conn=delta model=2 kv=0.38 kw = 0.014034014827860758 pf=0.92 status=variable vmaxpu=1.5 vminpu=0.93 daily="RU1_SA" 
New "Load.BT_205752_M2" bus1="UC205752.1.2.3.4" phases=3 conn=delta model=3 kv=0.38 kw = 0.014034014827860758 pf=0.92 status=variable vmaxpu=1.5 vminpu=0.93 daily="RU1_SA"
 
New "Load.BT_205753_M1" bus1="UC205753.2.4" phases=1 conn=delta model=2 kv=0.22 kw = 0.04353013567641571 pf=0.92 status=variable vmaxpu=1.5 vminpu=0.93 daily="CO6_SA" 
New "Load.BT_205753_M2" bus1="UC205753.2.4" phases=1 conn=delta model=3 kv=0.22 kw = 0.04353013567641571 pf=0.92 status=variable vmaxpu=1.5 vminpu=0.93 daily="CO6_SA"
 
New "Load.BT_205754_M1" bus1="UC205754.1.2.3.4" phases=3 conn=delta model=2 kv=0.38 kw = 0.27089042788886614 pf=0.92 status=variable vmaxpu=1.5 vminpu=0.93 daily="RU8_SA" 
New "Load.BT_205754_M2" bus1="UC205754.1.2.3.4" phases=3 conn=delta model=3 kv=0.38 kw = 0.27089042788886614 pf=0.92 status=variable vmaxpu=1.5 vminpu=0.93 daily="RU8_SA"
 
New "Load.BT_205755_M1" bus1="UC205755.1.4" phases=1 conn=delta model=2 kv=0.22 kw = 0.17606642887320278 pf=0.92 status=variable vmaxpu=1.5 vminpu=0.93 daily="RU3_SA" 
New "Load.BT_205755_M2" bus1="UC205755.1.4" phases=1 conn=delta model=3 kv=0.22 kw = 0.17606642887320278 pf=0.92 status=variable vmaxpu=1.5 vminpu=0.93 daily="RU3_SA"
 
New "Load.BT_205747_M1" bus1="UC205747.1.4" phases=1 conn=delta model=2 kv=0.22 kw = 0.005613605931144304 pf=0.92 status=variable vmaxpu=1.5 vminpu=0.93 daily="RU1_SA" 
New "Load.BT_205747_M2" bus1="UC205747.1.4" phases=1 conn=delta model=3 kv=0.22 kw = 0.005613605931144304 pf=0.92 status=variable vmaxpu=1.5 vminpu=0.93 daily="RU1_SA"
 
New "Load.BT_205746_M1" bus1="UC205746.1.4" phases=1 conn=delta model=2 kv=0.22 kw = 0.06843547651929252 pf=0.92 status=variable vmaxpu=1.5 vminpu=0.93 daily="RU8_SA" 
New "Load.BT_205746_M2" bus1="UC205746.1.4" phases=1 conn=delta model=3 kv=0.22 kw = 0.06843547651929252 pf=0.92 status=variable vmaxpu=1.5 vminpu=0.93 daily="RU8_SA"
 
New "Load.BT_220652_M1" bus1="UC220652.1.4" phases=1 conn=delta model=2 kv=0.22 kw = 0.2517223054253829 pf=0.92 status=variable vmaxpu=1.5 vminpu=0.93 daily="RU5_SA" 
New "Load.BT_220652_M2" bus1="UC220652.1.4" phases=1 conn=delta model=3 kv=0.22 kw = 0.2517223054253829 pf=0.92 status=variable vmaxpu=1.5 vminpu=0.93 daily="RU5_SA"
 
New "Load.BT_221021_M1" bus1="UC221021.1.4" phases=1 conn=delta model=2 kv=0.22 kw = 0.04281560865177488 pf=0.92 status=variable vmaxpu=1.5 vminpu=0.93 daily="RU2_SA" 
New "Load.BT_221021_M2" bus1="UC221021.1.4" phases=1 conn=delta model=3 kv=0.22 kw = 0.04281560865177488 pf=0.92 status=variable vmaxpu=1.5 vminpu=0.93 daily="RU2_SA"
 
New "Load.BT_205739_M1" bus1="UC205739.1.4" phases=1 conn=delta model=2 kv=0.22 kw = 0.29208392548252404 pf=0.92 status=variable vmaxpu=1.5 vminpu=0.93 daily="RE5_SA" 
New "Load.BT_205739_M2" bus1="UC205739.1.4" phases=1 conn=delta model=3 kv=0.22 kw = 0.29208392548252404 pf=0.92 status=variable vmaxpu=1.5 vminpu=0.93 daily="RE5_SA"
 
New "Load.BT_205744_M1" bus1="UC205744.1.2.3.4" phases=3 conn=delta model=2 kv=0.38 kw = 0.06561991722627503 pf=0.92 status=variable vmaxpu=1.5 vminpu=0.93 daily="RU5_SA" 
New "Load.BT_205744_M2" bus1="UC205744.1.2.3.4" phases=3 conn=delta model=3 kv=0.38 kw = 0.06561991722627503 pf=0.92 status=variable vmaxpu=1.5 vminpu=0.93 daily="RU5_SA"
 
New "Load.BT_205745_M1" bus1="UC205745.1.2.3.4" phases=3 conn=delta model=2 kv=0.38 kw = 0.17101186609778976 pf=0.92 status=variable vmaxpu=1.5 vminpu=0.93 daily="RU7_SA" 
New "Load.BT_205745_M2" bus1="UC205745.1.2.3.4" phases=3 conn=delta model=3 kv=0.38 kw = 0.17101186609778976 pf=0.92 status=variable vmaxpu=1.5 vminpu=0.93 daily="RU7_SA"
 
New "Load.BT_205737_M1" bus1="UC205737.2.4" phases=1 conn=delta model=2 kv=0.22 kw = 0.2755479808164197 pf=0.92 status=variable vmaxpu=1.5 vminpu=0.93 daily="RE6_SA" 
New "Load.BT_205737_M2" bus1="UC205737.2.4" phases=1 conn=delta model=3 kv=0.22 kw = 0.2755479808164197 pf=0.92 status=variable vmaxpu=1.5 vminpu=0.93 daily="RE6_SA"
 
New "Load.BT_225866_M1" bus1="UC225866.1.2.3.4" phases=3 conn=delta model=2 kv=0.38 kw = 0.1489792859696331 pf=0.92 status=variable vmaxpu=1.5 vminpu=0.93 daily="RU3_SA" 
New "Load.BT_225866_M2" bus1="UC225866.1.2.3.4" phases=3 conn=delta model=3 kv=0.38 kw = 0.1489792859696331 pf=0.92 status=variable vmaxpu=1.5 vminpu=0.93 daily="RU3_SA"
 
New "Load.BT_228021_M1" bus1="UC228021.2.4" phases=1 conn=delta model=2 kv=0.22 kw = 0.2961658911044688 pf=0.92 status=variable vmaxpu=1.5 vminpu=0.93 daily="RU4_SA" 
New "Load.BT_228021_M2" bus1="UC228021.2.4" phases=1 conn=delta model=3 kv=0.22 kw = 0.2961658911044688 pf=0.92 status=variable vmaxpu=1.5 vminpu=0.93 daily="RU4_SA"
 
New "Load.BT_223629_M1" bus1="UC223629.1.4" phases=1 conn=delta model=2 kv=0.22 kw = 0.019918726293081015 pf=0.92 status=variable vmaxpu=1.5 vminpu=0.93 daily="RE1_SA" 
New "Load.BT_223629_M2" bus1="UC223629.1.4" phases=1 conn=delta model=3 kv=0.22 kw = 0.019918726293081015 pf=0.92 status=variable vmaxpu=1.5 vminpu=0.93 daily="RE1_SA"
 
New "Load.BT_217024_M1" bus1="UC217024.1.4" phases=1 conn=delta model=2 kv=0.22 kw = 0.13018967870670445 pf=0.92 status=variable vmaxpu=1.5 vminpu=0.93 daily="RU7_SA" 
New "Load.BT_217024_M2" bus1="UC217024.1.4" phases=1 conn=delta model=3 kv=0.22 kw = 0.13018967870670445 pf=0.92 status=variable vmaxpu=1.5 vminpu=0.93 daily="RU7_SA"
 
New "Load.BT_223627_M1" bus1="UC223627.2.4" phases=1 conn=delta model=2 kv=0.22 kw = 0.02708904278888662 pf=0.92 status=variable vmaxpu=1.5 vminpu=0.93 daily="RU8_SA" 
New "Load.BT_223627_M2" bus1="UC223627.2.4" phases=1 conn=delta model=3 kv=0.22 kw = 0.02708904278888662 pf=0.92 status=variable vmaxpu=1.5 vminpu=0.93 daily="RU8_SA"
 
New "Load.BT_205672_M1" bus1="UC205672.1.4" phases=1 conn=delta model=2 kv=0.22 kw = 0.061723614510083326 pf=0.92 status=variable vmaxpu=1.5 vminpu=0.93 daily="RU6_SA" 
New "Load.BT_205672_M2" bus1="UC205672.1.4" phases=1 conn=delta model=3 kv=0.22 kw = 0.061723614510083326 pf=0.92 status=variable vmaxpu=1.5 vminpu=0.93 daily="RU6_SA"
 
New "Load.BT_205673_M1" bus1="UC205673.2.4" phases=1 conn=delta model=2 kv=0.22 kw = 0.20933813989713454 pf=0.92 status=variable vmaxpu=1.5 vminpu=0.93 daily="RU4_SA" 
New "Load.BT_205673_M2" bus1="UC205673.2.4" phases=1 conn=delta model=3 kv=0.22 kw = 0.20933813989713454 pf=0.92 status=variable vmaxpu=1.5 vminpu=0.93 daily="RU4_SA"
 
New "Load.BT_205666_M1" bus1="UC205666.1.2.3.4" phases=3 conn=delta model=2 kv=0.38 kw = 0.37972531607557725 pf=0.92 status=variable vmaxpu=1.5 vminpu=0.93 daily="RU2_SA" 
New "Load.BT_205666_M2" bus1="UC205666.1.2.3.4" phases=3 conn=delta model=3 kv=0.38 kw = 0.37972531607557725 pf=0.92 status=variable vmaxpu=1.5 vminpu=0.93 daily="RU2_SA"
 
New "Load.BT_205668_M1" bus1="UC205668.1.4" phases=1 conn=delta model=2 kv=0.22 kw = 0.014575678558058892 pf=0.92 status=variable vmaxpu=1.5 vminpu=0.93 daily="RU1_SA" 
New "Load.BT_205668_M2" bus1="UC205668.1.4" phases=1 conn=delta model=3 kv=0.22 kw = 0.014575678558058892 pf=0.92 status=variable vmaxpu=1.5 vminpu=0.93 daily="RU1_SA"
 
New "Load.BT_205669_M1" bus1="UC205669.2.4" phases=1 conn=delta model=2 kv=0.22 kw = 0.030698761957378945 pf=0.92 status=variable vmaxpu=1.5 vminpu=0.93 daily="RU3_SA" 
New "Load.BT_205669_M2" bus1="UC205669.2.4" phases=1 conn=delta model=3 kv=0.22 kw = 0.030698761957378945 pf=0.92 status=variable vmaxpu=1.5 vminpu=0.93 daily="RU3_SA"
 
New "Load.BT_205670_M1" bus1="UC205670.2.4" phases=1 conn=delta model=2 kv=0.22 kw = 0.07850180246142545 pf=0.92 status=variable vmaxpu=1.5 vminpu=0.93 daily="RU4_SA" 
New "Load.BT_205670_M2" bus1="UC205670.2.4" phases=1 conn=delta model=3 kv=0.22 kw = 0.07850180246142545 pf=0.92 status=variable vmaxpu=1.5 vminpu=0.93 daily="RU4_SA"
 
New "Load.BT_205671_M1" bus1="UC205671.2.4" phases=1 conn=delta model=2 kv=0.22 kw = 0.26803894970056236 pf=0.92 status=variable vmaxpu=1.5 vminpu=0.93 daily="RU8_SA" 
New "Load.BT_205671_M2" bus1="UC205671.2.4" phases=1 conn=delta model=3 kv=0.22 kw = 0.26803894970056236 pf=0.92 status=variable vmaxpu=1.5 vminpu=0.93 daily="RU8_SA"
 
New "Load.BT_206078_M1" bus1="UC206078.1.4" phases=1 conn=delta model=2 kv=0.22 kw = 0.003397708853061026 pf=0.92 status=variable vmaxpu=1.5 vminpu=0.93 daily="RU1_SA" 
New "Load.BT_206078_M2" bus1="UC206078.1.4" phases=1 conn=delta model=3 kv=0.22 kw = 0.003397708853061026 pf=0.92 status=variable vmaxpu=1.5 vminpu=0.93 daily="RU1_SA"
 
New "Load.BT_206080_M1" bus1="UC206080.2.4" phases=1 conn=delta model=2 kv=0.22 kw = 0.3663417448199855 pf=0.92 status=variable vmaxpu=1.5 vminpu=0.93 daily="RU4_SA" 
New "Load.BT_206080_M2" bus1="UC206080.2.4" phases=1 conn=delta model=3 kv=0.22 kw = 0.3663417448199855 pf=0.92 status=variable vmaxpu=1.5 vminpu=0.93 daily="RU4_SA"
 
New "Load.BT_205662_M1" bus1="UC205662.1.4" phases=1 conn=delta model=2 kv=0.22 kw = 0.5623707099807591 pf=0.92 status=variable vmaxpu=1.5 vminpu=0.93 daily="RU6_SA" 
New "Load.BT_205662_M2" bus1="UC205662.1.4" phases=1 conn=delta model=3 kv=0.22 kw = 0.5623707099807591 pf=0.92 status=variable vmaxpu=1.5 vminpu=0.93 daily="RU6_SA"
 
New "Load.BT_205664_M1" bus1="UC205664.1.2.4" phases=2 conn=delta model=2 kv=0.44 kw = 0.08577595252797059 pf=0.92 status=variable vmaxpu=1.5 vminpu=0.93 daily="RU3_SA" 
New "Load.BT_205664_M2" bus1="UC205664.1.2.4" phases=2 conn=delta model=3 kv=0.44 kw = 0.08577595252797059 pf=0.92 status=variable vmaxpu=1.5 vminpu=0.93 daily="RU3_SA"
 
New "Load.BT_205655_M1" bus1="UC205655.1.4" phases=1 conn=delta model=2 kv=0.22 kw = 0.13231557080052175 pf=0.92 status=variable vmaxpu=1.5 vminpu=0.93 daily="RU5_SA" 
New "Load.BT_205655_M2" bus1="UC205655.1.4" phases=1 conn=delta model=3 kv=0.22 kw = 0.13231557080052175 pf=0.92 status=variable vmaxpu=1.5 vminpu=0.93 daily="RU5_SA"
 
New "Load.BT_205658_M1" bus1="UC205658.1.4" phases=1 conn=delta model=2 kv=0.22 kw = 0.21766408864304332 pf=0.92 status=variable vmaxpu=1.5 vminpu=0.93 daily="RU4_SA" 
New "Load.BT_205658_M2" bus1="UC205658.1.4" phases=1 conn=delta model=3 kv=0.22 kw = 0.21766408864304332 pf=0.92 status=variable vmaxpu=1.5 vminpu=0.93 daily="RU4_SA"
 
New "Load.BT_205659_M1" bus1="UC205659.1.2.3.4" phases=3 conn=delta model=2 kv=0.38 kw = 0.20631754167926894 pf=0.92 status=variable vmaxpu=1.5 vminpu=0.93 daily="RU7_SA" 
New "Load.BT_205659_M2" bus1="UC205659.1.2.3.4" phases=3 conn=delta model=3 kv=0.38 kw = 0.20631754167926894 pf=0.92 status=variable vmaxpu=1.5 vminpu=0.93 daily="RU7_SA"
 
New "Load.BT_206061_M1" bus1="UC206061.1.4" phases=1 conn=delta model=2 kv=0.22 kw = 0.0416297437295438 pf=0.92 status=variable vmaxpu=1.5 vminpu=0.93 daily="RU4_SA" 
New "Load.BT_206061_M2" bus1="UC206061.1.4" phases=1 conn=delta model=3 kv=0.22 kw = 0.0416297437295438 pf=0.92 status=variable vmaxpu=1.5 vminpu=0.93 daily="RU4_SA"
 
New "Load.BT_205649_M1" bus1="UC205649.1.2.3.4" phases=3 conn=delta model=2 kv=0.38 kw = 0.20315357177677246 pf=0.92 status=variable vmaxpu=1.5 vminpu=0.93 daily="RU3_SA" 
New "Load.BT_205649_M2" bus1="UC205649.1.2.3.4" phases=3 conn=delta model=3 kv=0.38 kw = 0.20315357177677246 pf=0.92 status=variable vmaxpu=1.5 vminpu=0.93 daily="RU3_SA"
 
New "Load.BT_205650_M1" bus1="UC205650.1.4" phases=1 conn=delta model=2 kv=0.22 kw = 0.16733957711622588 pf=0.92 status=variable vmaxpu=1.5 vminpu=0.93 daily="RU6_SA" 
New "Load.BT_205650_M2" bus1="UC205650.1.4" phases=1 conn=delta model=3 kv=0.22 kw = 0.16733957711622588 pf=0.92 status=variable vmaxpu=1.5 vminpu=0.93 daily="RU6_SA"
 
New "Load.BT_205651_M1" bus1="UC205651.1.2.3.4" phases=3 conn=delta model=2 kv=0.38 kw = 0.5328950408079514 pf=0.92 status=variable vmaxpu=1.5 vminpu=0.93 daily="RU7_SA" 
New "Load.BT_205651_M2" bus1="UC205651.1.2.3.4" phases=3 conn=delta model=3 kv=0.38 kw = 0.5328950408079514 pf=0.92 status=variable vmaxpu=1.5 vminpu=0.93 daily="RU7_SA"
 
New "Load.BT_205653_M1" bus1="UC205653.1.2.3.4" phases=3 conn=delta model=2 kv=0.38 kw = 0.22098955959354874 pf=0.92 status=variable vmaxpu=1.5 vminpu=0.93 daily="RU8_SA" 
New "Load.BT_205653_M2" bus1="UC205653.1.2.3.4" phases=3 conn=delta model=3 kv=0.38 kw = 0.22098955959354874 pf=0.92 status=variable vmaxpu=1.5 vminpu=0.93 daily="RU8_SA"
 
New "Load.BT_205654_M1" bus1="UC205654.1.4" phases=1 conn=delta model=2 kv=0.22 kw = 0.025211984532858625 pf=0.92 status=variable vmaxpu=1.5 vminpu=0.93 daily="RU1_SA" 
New "Load.BT_205654_M2" bus1="UC205654.1.4" phases=1 conn=delta model=3 kv=0.22 kw = 0.025211984532858625 pf=0.92 status=variable vmaxpu=1.5 vminpu=0.93 daily="RU1_SA"
 
New "Load.BT_205648_M1" bus1="UC205648.1.4" phases=1 conn=delta model=2 kv=0.22 kw = 0.22662909562653283 pf=0.92 status=variable vmaxpu=1.5 vminpu=0.93 daily="RU3_SA" 
New "Load.BT_205648_M2" bus1="UC205648.1.4" phases=1 conn=delta model=3 kv=0.22 kw = 0.22662909562653283 pf=0.92 status=variable vmaxpu=1.5 vminpu=0.93 daily="RU3_SA"
 
New "Load.BT_205645_M1" bus1="UC205645.2.4" phases=1 conn=delta model=2 kv=0.22 kw = 0.07271269380174829 pf=0.92 status=variable vmaxpu=1.5 vminpu=0.93 daily="RU8_SA" 
New "Load.BT_205645_M2" bus1="UC205645.2.4" phases=1 conn=delta model=3 kv=0.22 kw = 0.07271269380174829 pf=0.92 status=variable vmaxpu=1.5 vminpu=0.93 daily="RU8_SA"
 
New "Load.BT_222266_M1" bus1="UC222266.2.4" phases=1 conn=delta model=2 kv=0.22 kw = 0.036498551637578584 pf=0.92 status=variable vmaxpu=1.5 vminpu=0.93 daily="RU2_SA" 
New "Load.BT_222266_M2" bus1="UC222266.2.4" phases=1 conn=delta model=3 kv=0.22 kw = 0.036498551637578584 pf=0.92 status=variable vmaxpu=1.5 vminpu=0.93 daily="RU2_SA"
 
New "Load.BT_205731_M1" bus1="UC205731.1.4" phases=1 conn=delta model=2 kv=0.22 kw = 0.012697518112374238 pf=0.92 status=variable vmaxpu=1.5 vminpu=0.93 daily="CO4_SA" 
New "Load.BT_205731_M2" bus1="UC205731.1.4" phases=1 conn=delta model=3 kv=0.22 kw = 0.012697518112374238 pf=0.92 status=variable vmaxpu=1.5 vminpu=0.93 daily="CO4_SA"
 
New "Load.BT_205734_M1" bus1="UC205734.1.2.4" phases=2 conn=delta model=2 kv=0.44 kw = 0.39277564084395583 pf=0.92 status=variable vmaxpu=1.5 vminpu=0.93 daily="RU7_SA" 
New "Load.BT_205734_M2" bus1="UC205734.1.2.4" phases=2 conn=delta model=3 kv=0.44 kw = 0.39277564084395583 pf=0.92 status=variable vmaxpu=1.5 vminpu=0.93 daily="RU7_SA"
 
New "Load.BT_219392_M1" bus1="UC219392.1.4" phases=1 conn=delta model=2 kv=0.22 kw = 0.12893377253217403 pf=0.92 status=variable vmaxpu=1.5 vminpu=0.93 daily="RU6_SA" 
New "Load.BT_219392_M2" bus1="UC219392.1.4" phases=1 conn=delta model=3 kv=0.22 kw = 0.12893377253217403 pf=0.92 status=variable vmaxpu=1.5 vminpu=0.93 daily="RU6_SA"
 
New "Load.BT_219394_M1" bus1="UC219394.1.4" phases=1 conn=delta model=2 kv=0.22 kw = 0.0 pf=0.92 status=variable vmaxpu=1.5 vminpu=0.93 daily="RU2_SA" 
New "Load.BT_219394_M2" bus1="UC219394.1.4" phases=1 conn=delta model=3 kv=0.22 kw = 0.0 pf=0.92 status=variable vmaxpu=1.5 vminpu=0.93 daily="RU2_SA"
 
New "Load.BT_219377_M1" bus1="UC219377.1.2.4" phases=2 conn=delta model=2 kv=0.44 kw = 1.5737692353224189 pf=0.92 status=variable vmaxpu=1.5 vminpu=0.93 daily="PP7_SA" 
New "Load.BT_219377_M2" bus1="UC219377.1.2.4" phases=2 conn=delta model=3 kv=0.44 kw = 1.5737692353224189 pf=0.92 status=variable vmaxpu=1.5 vminpu=0.93 daily="PP7_SA"
 
New "Load.BT_219381_M1" bus1="UC219381.1.4" phases=1 conn=delta model=2 kv=0.22 kw = 0.05868880962440092 pf=0.92 status=variable vmaxpu=1.5 vminpu=0.93 daily="RU3_SA" 
New "Load.BT_219381_M2" bus1="UC219381.1.4" phases=1 conn=delta model=3 kv=0.22 kw = 0.05868880962440092 pf=0.92 status=variable vmaxpu=1.5 vminpu=0.93 daily="RU3_SA"
 
New "Load.BT_219384_M1" bus1="UC219384.1.4" phases=1 conn=delta model=2 kv=0.22 kw = 0.08758176205487522 pf=0.92 status=variable vmaxpu=1.5 vminpu=0.93 daily="RU3_SA" 
New "Load.BT_219384_M2" bus1="UC219384.1.4" phases=1 conn=delta model=3 kv=0.22 kw = 0.08758176205487522 pf=0.92 status=variable vmaxpu=1.5 vminpu=0.93 daily="RU3_SA"
 
New "Load.BT_225587_M1" bus1="UC225587.1.4" phases=1 conn=delta model=2 kv=0.22 kw = 0.1146689049584449 pf=0.92 status=variable vmaxpu=1.5 vminpu=0.93 daily="RU3_SA" 
New "Load.BT_225587_M2" bus1="UC225587.1.4" phases=1 conn=delta model=3 kv=0.22 kw = 0.1146689049584449 pf=0.92 status=variable vmaxpu=1.5 vminpu=0.93 daily="RU3_SA"
 
New "Load.BT_205729_M1" bus1="UC205729.1.2.4" phases=2 conn=delta model=2 kv=0.44 kw = 0.0932712397041259 pf=0.92 status=variable vmaxpu=1.5 vminpu=0.93 daily="RU6_SA" 
New "Load.BT_205729_M2" bus1="UC205729.1.2.4" phases=2 conn=delta model=3 kv=0.44 kw = 0.0932712397041259 pf=0.92 status=variable vmaxpu=1.5 vminpu=0.93 daily="RU6_SA"
 
New "Load.BT_205730_M1" bus1="UC205730.2.4" phases=1 conn=delta model=2 kv=0.22 kw = 0.18534608223975055 pf=0.92 status=variable vmaxpu=1.5 vminpu=0.93 daily="RU8_SA" 
New "Load.BT_205730_M2" bus1="UC205730.2.4" phases=1 conn=delta model=3 kv=0.22 kw = 0.18534608223975055 pf=0.92 status=variable vmaxpu=1.5 vminpu=0.93 daily="RU8_SA"
 
New "Load.BT_205717_M1" bus1="UC205717.1.2.3.4" phases=3 conn=delta model=2 kv=0.38 kw = 0.08487304776451826 pf=0.92 status=variable vmaxpu=1.5 vminpu=0.93 daily="RU3_SA" 
New "Load.BT_205717_M2" bus1="UC205717.1.2.3.4" phases=3 conn=delta model=3 kv=0.38 kw = 0.08487304776451826 pf=0.92 status=variable vmaxpu=1.5 vminpu=0.93 daily="RU3_SA"
 
New "Load.BT_205719_M1" bus1="UC205719.2.4" phases=1 conn=delta model=2 kv=0.22 kw = 0.0 pf=0.92 status=variable vmaxpu=1.5 vminpu=0.93 daily="RE6_SA" 
New "Load.BT_205719_M2" bus1="UC205719.2.4" phases=1 conn=delta model=3 kv=0.22 kw = 0.0 pf=0.92 status=variable vmaxpu=1.5 vminpu=0.93 daily="RE6_SA"
 
New "Load.BT_205722_M1" bus1="UC205722.1.2.3.4" phases=3 conn=delta model=2 kv=0.38 kw = 0.12550376211987274 pf=0.92 status=variable vmaxpu=1.5 vminpu=0.93 daily="RU3_SA" 
New "Load.BT_205722_M2" bus1="UC205722.1.2.3.4" phases=3 conn=delta model=3 kv=0.38 kw = 0.12550376211987274 pf=0.92 status=variable vmaxpu=1.5 vminpu=0.93 daily="RU3_SA"
 
New "Load.BT_205727_M1" bus1="UC205727.1.4" phases=1 conn=delta model=2 kv=0.22 kw = 0.08605890783773774 pf=0.92 status=variable vmaxpu=1.5 vminpu=0.93 daily="RU5_SA" 
New "Load.BT_205727_M2" bus1="UC205727.1.4" phases=1 conn=delta model=3 kv=0.22 kw = 0.08605890783773774 pf=0.92 status=variable vmaxpu=1.5 vminpu=0.93 daily="RU5_SA"
 
New "Load.BT_205710_M1" bus1="UC205710.1.2.3.4" phases=3 conn=delta model=2 kv=0.38 kw = 0.18599838127117835 pf=0.92 status=variable vmaxpu=1.5 vminpu=0.93 daily="RU3_SA" 
New "Load.BT_205710_M2" bus1="UC205710.1.2.3.4" phases=3 conn=delta model=3 kv=0.38 kw = 0.18599838127117835 pf=0.92 status=variable vmaxpu=1.5 vminpu=0.93 daily="RU3_SA"
 
New "Load.BT_205711_M1" bus1="UC205711.2.4" phases=1 conn=delta model=2 kv=0.22 kw = 0.11510378923297424 pf=0.92 status=variable vmaxpu=1.5 vminpu=0.93 daily="RU5_SA" 
New "Load.BT_205711_M2" bus1="UC205711.2.4" phases=1 conn=delta model=3 kv=0.22 kw = 0.11510378923297424 pf=0.92 status=variable vmaxpu=1.5 vminpu=0.93 daily="RU5_SA"
 
New "Load.BT_205713_M1" bus1="UC205713.2.4" phases=1 conn=delta model=2 kv=0.22 kw = 0.18238676221736905 pf=0.92 status=variable vmaxpu=1.5 vminpu=0.93 daily="RU3_SA" 
New "Load.BT_205713_M2" bus1="UC205713.2.4" phases=1 conn=delta model=3 kv=0.22 kw = 0.18238676221736905 pf=0.92 status=variable vmaxpu=1.5 vminpu=0.93 daily="RU3_SA"
 
New "Load.BT_219351_M1" bus1="UC219351.2.4" phases=1 conn=delta model=2 kv=0.22 kw = 0.13791279524015304 pf=0.92 status=variable vmaxpu=1.5 vminpu=0.93 daily="RU7_SA" 
New "Load.BT_219351_M2" bus1="UC219351.2.4" phases=1 conn=delta model=3 kv=0.22 kw = 0.13791279524015304 pf=0.92 status=variable vmaxpu=1.5 vminpu=0.93 daily="RU7_SA"
 
New "Load.BT_219353_M1" bus1="UC219353.2.4" phases=1 conn=delta model=2 kv=0.22 kw = 0.006401480447796135 pf=0.92 status=variable vmaxpu=1.5 vminpu=0.93 daily="RU1_SA" 
New "Load.BT_219353_M2" bus1="UC219353.2.4" phases=1 conn=delta model=3 kv=0.22 kw = 0.006401480447796135 pf=0.92 status=variable vmaxpu=1.5 vminpu=0.93 daily="RU1_SA"
 
New "Load.BT_219354_M1" bus1="UC219354.1.4" phases=1 conn=delta model=2 kv=0.22 kw = 0.10424432672814073 pf=0.92 status=variable vmaxpu=1.5 vminpu=0.93 daily="RU6_SA" 
New "Load.BT_219354_M2" bus1="UC219354.1.4" phases=1 conn=delta model=3 kv=0.22 kw = 0.10424432672814073 pf=0.92 status=variable vmaxpu=1.5 vminpu=0.93 daily="RU6_SA"
 
New "Load.BT_219361_M1" bus1="UC219361.1.2.3.4" phases=3 conn=delta model=2 kv=0.38 kw = 0.09971536851374749 pf=0.92 status=variable vmaxpu=1.5 vminpu=0.93 daily="RU1_SA" 
New "Load.BT_219361_M2" bus1="UC219361.1.2.3.4" phases=3 conn=delta model=3 kv=0.38 kw = 0.09971536851374749 pf=0.92 status=variable vmaxpu=1.5 vminpu=0.93 daily="RU1_SA"
 
New "Load.BT_219363_M1" bus1="UC219363.2.4" phases=1 conn=delta model=2 kv=0.22 kw = 0.05593829009452953 pf=0.92 status=variable vmaxpu=1.5 vminpu=0.93 daily="RU5_SA" 
New "Load.BT_219363_M2" bus1="UC219363.2.4" phases=1 conn=delta model=3 kv=0.22 kw = 0.05593829009452953 pf=0.92 status=variable vmaxpu=1.5 vminpu=0.93 daily="RU5_SA"
 
New "Load.BT_205709_M1" bus1="UC205709.1.4" phases=1 conn=delta model=2 kv=0.22 kw = 0.04785395246297307 pf=0.92 status=variable vmaxpu=1.5 vminpu=0.93 daily="RU3_SA" 
New "Load.BT_205709_M2" bus1="UC205709.1.4" phases=1 conn=delta model=3 kv=0.22 kw = 0.04785395246297307 pf=0.92 status=variable vmaxpu=1.5 vminpu=0.93 daily="RU3_SA"
 
New "Load.BT_225590_M1" bus1="UC225590.2.4" phases=1 conn=delta model=2 kv=0.22 kw = 0.07494109536654273 pf=0.92 status=variable vmaxpu=1.5 vminpu=0.93 daily="RU3_SA" 
New "Load.BT_225590_M2" bus1="UC225590.2.4" phases=1 conn=delta model=3 kv=0.22 kw = 0.07494109536654273 pf=0.92 status=variable vmaxpu=1.5 vminpu=0.93 daily="RU3_SA"
 
New "Load.BT_225591_M1" bus1="UC225591.1.4" phases=1 conn=delta model=2 kv=0.22 kw = 0.03431038101118823 pf=0.92 status=variable vmaxpu=1.5 vminpu=0.93 daily="RU3_SA" 
New "Load.BT_225591_M2" bus1="UC225591.1.4" phases=1 conn=delta model=3 kv=0.22 kw = 0.03431038101118823 pf=0.92 status=variable vmaxpu=1.5 vminpu=0.93 daily="RU3_SA"
 
New "Load.BT_225591_M1" bus1="UC225591.1.4" phases=1 conn=delta model=2 kv=0.22 kw = 0.13559402243337124 pf=0.92 status=variable vmaxpu=1.5 vminpu=0.93 daily="RU4_SA" 
New "Load.BT_225591_M2" bus1="UC225591.1.4" phases=1 conn=delta model=3 kv=0.22 kw = 0.13559402243337124 pf=0.92 status=variable vmaxpu=1.5 vminpu=0.93 daily="RU4_SA"
 
New "Load.BT_225593_M1" bus1="UC225593.2.4" phases=1 conn=delta model=2 kv=0.22 kw = 0.104346425753257 pf=0.92 status=variable vmaxpu=1.5 vminpu=0.93 daily="RU5_SA" 
New "Load.BT_225593_M2" bus1="UC225593.2.4" phases=1 conn=delta model=3 kv=0.22 kw = 0.104346425753257 pf=0.92 status=variable vmaxpu=1.5 vminpu=0.93 daily="RU5_SA"
 
New "Load.BT_205706_M1" bus1="UC205706.1.2.4" phases=2 conn=delta model=2 kv=0.44 kw = 0.4205930327748185 pf=0.92 status=variable vmaxpu=1.5 vminpu=0.93 daily="RU8_SA" 
New "Load.BT_205706_M2" bus1="UC205706.1.2.4" phases=2 conn=delta model=3 kv=0.44 kw = 0.4205930327748185 pf=0.92 status=variable vmaxpu=1.5 vminpu=0.93 daily="RU8_SA"
 
New "Load.BT_205707_M1" bus1="UC205707.1.4" phases=1 conn=delta model=2 kv=0.22 kw = 0.0025820758889849296 pf=0.92 status=variable vmaxpu=1.5 vminpu=0.93 daily="CO3_SA" 
New "Load.BT_205707_M2" bus1="UC205707.1.4" phases=1 conn=delta model=3 kv=0.22 kw = 0.0025820758889849296 pf=0.92 status=variable vmaxpu=1.5 vminpu=0.93 daily="CO3_SA"
 
New "Load.BT_225285_M1" bus1="UC225285.1.4" phases=1 conn=delta model=2 kv=0.22 kw = 0.03439286596617982 pf=0.92 status=variable vmaxpu=1.5 vminpu=0.93 daily="RU2_SA" 
New "Load.BT_225285_M2" bus1="UC225285.1.4" phases=1 conn=delta model=3 kv=0.22 kw = 0.03439286596617982 pf=0.92 status=variable vmaxpu=1.5 vminpu=0.93 daily="RU2_SA"
 
New "Load.BT_225286_M1" bus1="UC225286.1.4" phases=1 conn=delta model=2 kv=0.22 kw = 0.004413209447684897 pf=0.92 status=variable vmaxpu=1.5 vminpu=0.93 daily="RU7_SA" 
New "Load.BT_225286_M2" bus1="UC225286.1.4" phases=1 conn=delta model=3 kv=0.22 kw = 0.004413209447684897 pf=0.92 status=variable vmaxpu=1.5 vminpu=0.93 daily="RU7_SA"
 
New "Load.BT_225289_M1" bus1="UC225289.1.4" phases=1 conn=delta model=2 kv=0.22 kw = 0.24026309238193852 pf=0.92 status=variable vmaxpu=1.5 vminpu=0.93 daily="RU4_SA" 
New "Load.BT_225289_M2" bus1="UC225289.1.4" phases=1 conn=delta model=3 kv=0.22 kw = 0.24026309238193852 pf=0.92 status=variable vmaxpu=1.5 vminpu=0.93 daily="RU4_SA"
 
New "Load.BT_225290_M1" bus1="UC225290.2.4" phases=1 conn=delta model=2 kv=0.22 kw = 0.09661080968939845 pf=0.92 status=variable vmaxpu=1.5 vminpu=0.93 daily="RU3_SA" 
New "Load.BT_225290_M2" bus1="UC225290.2.4" phases=1 conn=delta model=3 kv=0.22 kw = 0.09661080968939845 pf=0.92 status=variable vmaxpu=1.5 vminpu=0.93 daily="RU3_SA"
 
New "Load.BT_205695_M1" bus1="UC205695.1.4" phases=1 conn=delta model=2 kv=0.22 kw = 0.3692664253853492 pf=0.92 status=variable vmaxpu=1.5 vminpu=0.93 daily="RU8_SA" 
New "Load.BT_205695_M2" bus1="UC205695.1.4" phases=1 conn=delta model=3 kv=0.22 kw = 0.3692664253853492 pf=0.92 status=variable vmaxpu=1.5 vminpu=0.93 daily="RU8_SA"
 
New "Load.BT_205699_M1" bus1="UC205699.1.4" phases=1 conn=delta model=2 kv=0.22 kw = 0.042772172824557815 pf=0.92 status=variable vmaxpu=1.5 vminpu=0.93 daily="RU8_SA" 
New "Load.BT_205699_M2" bus1="UC205699.1.4" phases=1 conn=delta model=3 kv=0.22 kw = 0.042772172824557815 pf=0.92 status=variable vmaxpu=1.5 vminpu=0.93 daily="RU8_SA"
 
New "Load.BT_205700_M1" bus1="UC205700.1.4" phases=1 conn=delta model=2 kv=0.22 kw = 0.31519074995571444 pf=0.92 status=variable vmaxpu=1.5 vminpu=0.93 daily="RU5_SA" 
New "Load.BT_205700_M2" bus1="UC205700.1.4" phases=1 conn=delta model=3 kv=0.22 kw = 0.31519074995571444 pf=0.92 status=variable vmaxpu=1.5 vminpu=0.93 daily="RU5_SA"
 
New "Load.BT_205703_M1" bus1="UC205703.1.4" phases=1 conn=delta model=2 kv=0.22 kw = 0.0 pf=0.92 status=variable vmaxpu=1.5 vminpu=0.93 daily="RU1_SA" 
New "Load.BT_205703_M2" bus1="UC205703.1.4" phases=1 conn=delta model=3 kv=0.22 kw = 0.0 pf=0.92 status=variable vmaxpu=1.5 vminpu=0.93 daily="RU1_SA"
 
New "Load.BT_218342_M1" bus1="UC218342.1.4" phases=1 conn=delta model=2 kv=0.22 kw = 0.0832594874590876 pf=0.92 status=variable vmaxpu=1.5 vminpu=0.93 daily="RU4_SA" 
New "Load.BT_218342_M2" bus1="UC218342.1.4" phases=1 conn=delta model=3 kv=0.22 kw = 0.0832594874590876 pf=0.92 status=variable vmaxpu=1.5 vminpu=0.93 daily="RU4_SA"
 
New "Load.BT_224968_M1" bus1="UC224968.2.4" phases=1 conn=delta model=2 kv=0.22 kw = 0.00999615793002012 pf=0.92 status=variable vmaxpu=1.5 vminpu=0.93 daily="RU1_SA" 
New "Load.BT_224968_M2" bus1="UC224968.2.4" phases=1 conn=delta model=3 kv=0.22 kw = 0.00999615793002012 pf=0.92 status=variable vmaxpu=1.5 vminpu=0.93 daily="RU1_SA"
 
New "Load.BT_225281_M1" bus1="UC225281.1.4" phases=1 conn=delta model=2 kv=0.22 kw = 0.08404745360809712 pf=0.92 status=variable vmaxpu=1.5 vminpu=0.93 daily="RE6_SA" 
New "Load.BT_225281_M2" bus1="UC225281.1.4" phases=1 conn=delta model=3 kv=0.22 kw = 0.08404745360809712 pf=0.92 status=variable vmaxpu=1.5 vminpu=0.93 daily="RE6_SA"
 
New "Load.BT_218304_M1" bus1="UC218304.1.2.3.4" phases=3 conn=delta model=2 kv=0.38 kw = 0.13129298106862566 pf=0.92 status=variable vmaxpu=1.5 vminpu=0.93 daily="RU7_SA" 
New "Load.BT_218304_M2" bus1="UC218304.1.2.3.4" phases=3 conn=delta model=3 kv=0.38 kw = 0.13129298106862566 pf=0.92 status=variable vmaxpu=1.5 vminpu=0.93 daily="RU7_SA"
 
New "Load.BT_218305_M1" bus1="UC218305.3.4" phases=1 conn=delta model=2 kv=0.22 kw = 0.0 pf=0.92 status=variable vmaxpu=1.5 vminpu=0.93 daily="RU1_SA" 
New "Load.BT_218305_M2" bus1="UC218305.3.4" phases=1 conn=delta model=3 kv=0.22 kw = 0.0 pf=0.92 status=variable vmaxpu=1.5 vminpu=0.93 daily="RU1_SA"
 
New "Load.BT_218309_M1" bus1="UC218309.1.4" phases=1 conn=delta model=2 kv=0.22 kw = 0.006746175548831313 pf=0.92 status=variable vmaxpu=1.5 vminpu=0.93 daily="RU1_SA" 
New "Load.BT_218309_M2" bus1="UC218309.1.4" phases=1 conn=delta model=3 kv=0.22 kw = 0.006746175548831313 pf=0.92 status=variable vmaxpu=1.5 vminpu=0.93 daily="RU1_SA"
 
New "Load.BT_218318_M1" bus1="UC218318.1.4" phases=1 conn=delta model=2 kv=0.22 kw = 0.1839509155031644 pf=0.92 status=variable vmaxpu=1.5 vminpu=0.93 daily="RU5_SA" 
New "Load.BT_218318_M2" bus1="UC218318.1.4" phases=1 conn=delta model=3 kv=0.22 kw = 0.1839509155031644 pf=0.92 status=variable vmaxpu=1.5 vminpu=0.93 daily="RU5_SA"
 
New "Load.BT_218320_M1" bus1="UC218320.1.4" phases=1 conn=delta model=2 kv=0.22 kw = 0.0 pf=0.92 status=variable vmaxpu=1.5 vminpu=0.93 daily="CO4_SA" 
New "Load.BT_218320_M2" bus1="UC218320.1.4" phases=1 conn=delta model=3 kv=0.22 kw = 0.0 pf=0.92 status=variable vmaxpu=1.5 vminpu=0.93 daily="CO4_SA"
 
New "Load.BT_218323_M1" bus1="UC218323.1.4" phases=1 conn=delta model=2 kv=0.22 kw = 0.22836887988778315 pf=0.92 status=variable vmaxpu=1.5 vminpu=0.93 daily="RU4_SA" 
New "Load.BT_218323_M2" bus1="UC218323.1.4" phases=1 conn=delta model=3 kv=0.22 kw = 0.22836887988778315 pf=0.92 status=variable vmaxpu=1.5 vminpu=0.93 daily="RU4_SA"
 
New "Load.BT_223646_M1" bus1="UC223646.1.4" phases=1 conn=delta model=2 kv=0.22 kw = 0.059661094022964996 pf=0.92 status=variable vmaxpu=1.5 vminpu=0.93 daily="RU2_SA" 
New "Load.BT_223646_M2" bus1="UC223646.1.4" phases=1 conn=delta model=3 kv=0.22 kw = 0.059661094022964996 pf=0.92 status=variable vmaxpu=1.5 vminpu=0.93 daily="RU2_SA"
 
New "Load.BT_205687_M1" bus1="UC205687.1.4" phases=1 conn=delta model=2 kv=0.22 kw = 0.07861226506555387 pf=0.92 status=variable vmaxpu=1.5 vminpu=0.93 daily="RU2_SA" 
New "Load.BT_205687_M2" bus1="UC205687.1.4" phases=1 conn=delta model=3 kv=0.22 kw = 0.07861226506555387 pf=0.92 status=variable vmaxpu=1.5 vminpu=0.93 daily="RU2_SA"
 
New "Load.BT_205689_M1" bus1="UC205689.1.4" phases=1 conn=delta model=2 kv=0.22 kw = 0.008773690297494852 pf=0.92 status=variable vmaxpu=1.5 vminpu=0.93 daily="RU2_SA" 
New "Load.BT_205689_M2" bus1="UC205689.1.4" phases=1 conn=delta model=3 kv=0.22 kw = 0.008773690297494852 pf=0.92 status=variable vmaxpu=1.5 vminpu=0.93 daily="RU2_SA"
 
New "Load.BT_205691_M1" bus1="UC205691.1.2.4" phases=2 conn=delta model=2 kv=0.44 kw = 0.08641306031411665 pf=0.92 status=variable vmaxpu=1.5 vminpu=0.93 daily="RU6_SA" 
New "Load.BT_205691_M2" bus1="UC205691.1.2.4" phases=2 conn=delta model=3 kv=0.44 kw = 0.08641306031411665 pf=0.92 status=variable vmaxpu=1.5 vminpu=0.93 daily="RU6_SA"
 
New "Load.BT_223645_M1" bus1="UC223645.1.4" phases=1 conn=delta model=2 kv=0.22 kw = 0.04562365101286167 pf=0.92 status=variable vmaxpu=1.5 vminpu=0.93 daily="RU8_SA" 
New "Load.BT_223645_M2" bus1="UC223645.1.4" phases=1 conn=delta model=3 kv=0.22 kw = 0.04562365101286167 pf=0.92 status=variable vmaxpu=1.5 vminpu=0.93 daily="RU8_SA"
 
New "Load.BT_223633_M1" bus1="UC223633.1.4" phases=1 conn=delta model=2 kv=0.22 kw = 0.19065738704225738 pf=0.92 status=variable vmaxpu=1.5 vminpu=0.93 daily="RU6_SA" 
New "Load.BT_223633_M2" bus1="UC223633.1.4" phases=1 conn=delta model=3 kv=0.22 kw = 0.19065738704225738 pf=0.92 status=variable vmaxpu=1.5 vminpu=0.93 daily="RU6_SA"
 
New "Load.BT_223634_M1" bus1="UC223634.1.4" phases=1 conn=delta model=2 kv=0.22 kw = 0.07061135116295836 pf=0.92 status=variable vmaxpu=1.5 vminpu=0.93 daily="RU7_SA" 
New "Load.BT_223634_M2" bus1="UC223634.1.4" phases=1 conn=delta model=3 kv=0.22 kw = 0.07061135116295836 pf=0.92 status=variable vmaxpu=1.5 vminpu=0.93 daily="RU7_SA"
 
New "Load.BT_223644_M1" bus1="UC223644.1.4" phases=1 conn=delta model=2 kv=0.22 kw = 0.10308844428794964 pf=0.92 status=variable vmaxpu=1.5 vminpu=0.93 daily="RE5_SA" 
New "Load.BT_223644_M2" bus1="UC223644.1.4" phases=1 conn=delta model=3 kv=0.22 kw = 0.10308844428794964 pf=0.92 status=variable vmaxpu=1.5 vminpu=0.93 daily="RE5_SA"
 
New "Load.BT_217026_M1" bus1="UC217026.1.4" phases=1 conn=delta model=2 kv=0.22 kw = 0.08716088659177672 pf=0.92 status=variable vmaxpu=1.5 vminpu=0.93 daily="RU7_SA" 
New "Load.BT_217026_M2" bus1="UC217026.1.4" phases=1 conn=delta model=3 kv=0.22 kw = 0.08716088659177672 pf=0.92 status=variable vmaxpu=1.5 vminpu=0.93 daily="RU7_SA"
 
New "Load.BT_217031_M1" bus1="UC217031.1.4" phases=1 conn=delta model=2 kv=0.22 kw = 0.12815185747700253 pf=0.92 status=variable vmaxpu=1.5 vminpu=0.93 daily="RE2_SA" 
New "Load.BT_217031_M2" bus1="UC217031.1.4" phases=1 conn=delta model=3 kv=0.22 kw = 0.12815185747700253 pf=0.92 status=variable vmaxpu=1.5 vminpu=0.93 daily="RE2_SA"
 
New "Load.BT_218301_M1" bus1="UC218301.1.2.4" phases=2 conn=delta model=2 kv=0.44 kw = 0.13440460118395572 pf=0.92 status=variable vmaxpu=1.5 vminpu=0.93 daily="RU4_SA" 
New "Load.BT_218301_M2" bus1="UC218301.1.2.4" phases=2 conn=delta model=3 kv=0.44 kw = 0.13440460118395572 pf=0.92 status=variable vmaxpu=1.5 vminpu=0.93 daily="RU4_SA"
 
New "Load.BT_223630_M1" bus1="UC223630.2.4" phases=1 conn=delta model=2 kv=0.22 kw = 0.07764980965689969 pf=0.92 status=variable vmaxpu=1.5 vminpu=0.93 daily="RU3_SA" 
New "Load.BT_223630_M2" bus1="UC223630.2.4" phases=1 conn=delta model=3 kv=0.22 kw = 0.07764980965689969 pf=0.92 status=variable vmaxpu=1.5 vminpu=0.93 daily="RU3_SA"
 
New "Load.BT_223631_M1" bus1="UC223631.2.4" phases=1 conn=delta model=2 kv=0.22 kw = 0.12619050077617033 pf=0.92 status=variable vmaxpu=1.5 vminpu=0.93 daily="RU6_SA" 
New "Load.BT_223631_M2" bus1="UC223631.2.4" phases=1 conn=delta model=3 kv=0.22 kw = 0.12619050077617033 pf=0.92 status=variable vmaxpu=1.5 vminpu=0.93 daily="RU6_SA"
 
New "Load.BT_222260_M1" bus1="UC222260.1.4" phases=1 conn=delta model=2 kv=0.22 kw = 0.3343006156621309 pf=0.92 status=variable vmaxpu=1.5 vminpu=0.93 daily="RU7_SA" 
New "Load.BT_222260_M2" bus1="UC222260.1.4" phases=1 conn=delta model=3 kv=0.22 kw = 0.3343006156621309 pf=0.92 status=variable vmaxpu=1.5 vminpu=0.93 daily="RU7_SA"
 
New "Load.BT_222263_M1" bus1="UC222263.1.4" phases=1 conn=delta model=2 kv=0.22 kw = 0.09405395998914481 pf=0.92 status=variable vmaxpu=1.5 vminpu=0.93 daily="RU2_SA" 
New "Load.BT_222263_M2" bus1="UC222263.1.4" phases=1 conn=delta model=3 kv=0.22 kw = 0.09405395998914481 pf=0.92 status=variable vmaxpu=1.5 vminpu=0.93 daily="RU2_SA"
 
New "Load.BT_205680_M1" bus1="UC205680.1.2.3.4" phases=3 conn=delta model=2 kv=0.38 kw = 0.07580468417035552 pf=0.92 status=variable vmaxpu=1.5 vminpu=0.93 daily="RU2_SA" 
New "Load.BT_205680_M2" bus1="UC205680.1.2.3.4" phases=3 conn=delta model=3 kv=0.38 kw = 0.07580468417035552 pf=0.92 status=variable vmaxpu=1.5 vminpu=0.93 daily="RU2_SA"
 
New "Load.BT_205681_M1" bus1="UC205681.1.2.4" phases=2 conn=delta model=2 kv=0.44 kw = 0.6358796359917597 pf=0.92 status=variable vmaxpu=1.5 vminpu=0.93 daily="RU8_SA" 
New "Load.BT_205681_M2" bus1="UC205681.1.2.4" phases=2 conn=delta model=3 kv=0.44 kw = 0.6358796359917597 pf=0.92 status=variable vmaxpu=1.5 vminpu=0.93 daily="RU8_SA"
 
New "Load.BT_205675_M1" bus1="UC205675.2.4" phases=1 conn=delta model=2 kv=0.22 kw = 0.01828751791551927 pf=0.92 status=variable vmaxpu=1.5 vminpu=0.93 daily="RU5_SA" 
New "Load.BT_205675_M2" bus1="UC205675.2.4" phases=1 conn=delta model=3 kv=0.22 kw = 0.01828751791551927 pf=0.92 status=variable vmaxpu=1.5 vminpu=0.93 daily="RU5_SA"
 
New "Load.BT_238952_M1" bus1="UC238952.2.4" phases=1 conn=delta model=2 kv=0.22 kw = 0.0010607543445347676 pf=0.92 status=variable vmaxpu=1.5 vminpu=0.93 daily="RE3_SA" 
New "Load.BT_238952_M2" bus1="UC238952.2.4" phases=1 conn=delta model=3 kv=0.22 kw = 0.0010607543445347676 pf=0.92 status=variable vmaxpu=1.5 vminpu=0.93 daily="RE3_SA"
 
New "Load.BT_205735_M1" bus1="UC205735.3.1.4" phases=2 conn=delta model=2 kv=0.38 kw = 0.7164404077491667 pf=0.92 status=variable vmaxpu=1.5 vminpu=0.93 daily="RU5_SA" 
New "Load.BT_205735_M2" bus1="UC205735.3.1.4" phases=2 conn=delta model=3 kv=0.38 kw = 0.7164404077491667 pf=0.92 status=variable vmaxpu=1.5 vminpu=0.93 daily="RU5_SA"
 
New "Load.BT_238959_M1" bus1="UC238959.1.4" phases=1 conn=delta model=2 kv=0.22 kw = 0.04698901440823426 pf=0.92 status=variable vmaxpu=1.5 vminpu=0.93 daily="RE2_SA" 
New "Load.BT_238959_M2" bus1="UC238959.1.4" phases=1 conn=delta model=3 kv=0.22 kw = 0.04698901440823426 pf=0.92 status=variable vmaxpu=1.5 vminpu=0.93 daily="RE2_SA"
 
New "Load.BT_221689_M1" bus1="UC221689.1.4" phases=1 conn=delta model=2 kv=0.22 kw = 0.45949801913062027 pf=0.92 status=variable vmaxpu=1.5 vminpu=0.93 daily="RU6_SA" 
New "Load.BT_221689_M2" bus1="UC221689.1.4" phases=1 conn=delta model=3 kv=0.22 kw = 0.45949801913062027 pf=0.92 status=variable vmaxpu=1.5 vminpu=0.93 daily="RU6_SA"
 
New "Load.BT_238205_M1" bus1="UC238205.2.4" phases=1 conn=delta model=2 kv=0.22 kw = 0.019918726293081015 pf=0.92 status=variable vmaxpu=1.5 vminpu=0.93 daily="RE1_SA" 
New "Load.BT_238205_M2" bus1="UC238205.2.4" phases=1 conn=delta model=3 kv=0.22 kw = 0.019918726293081015 pf=0.92 status=variable vmaxpu=1.5 vminpu=0.93 daily="RE1_SA"
 
New "Load.BT_235961_M1" bus1="UC235961.1.4" phases=1 conn=delta model=2 kv=0.22 kw = 0.04663561985206295 pf=0.92 status=variable vmaxpu=1.5 vminpu=0.93 daily="RU6_SA" 
New "Load.BT_235961_M2" bus1="UC235961.1.4" phases=1 conn=delta model=3 kv=0.22 kw = 0.04663561985206295 pf=0.92 status=variable vmaxpu=1.5 vminpu=0.93 daily="RU6_SA"
 
New "Load.BT_237573_M1" bus1="UC237573.1.4" phases=1 conn=delta model=2 kv=0.22 kw = 0.04965976198987771 pf=0.92 status=variable vmaxpu=1.5 vminpu=0.93 daily="RU3_SA" 
New "Load.BT_237573_M2" bus1="UC237573.1.4" phases=1 conn=delta model=3 kv=0.22 kw = 0.04965976198987771 pf=0.92 status=variable vmaxpu=1.5 vminpu=0.93 daily="RU3_SA"
 
New "Load.BT_237359_M1" bus1="UC237359.2.4" phases=1 conn=delta model=2 kv=0.22 kw = 0.07580468417035552 pf=0.92 status=variable vmaxpu=1.5 vminpu=0.93 daily="RU2_SA" 
New "Load.BT_237359_M2" bus1="UC237359.2.4" phases=1 conn=delta model=3 kv=0.22 kw = 0.07580468417035552 pf=0.92 status=variable vmaxpu=1.5 vminpu=0.93 daily="RU2_SA"
 
New "Load.BT_237167_M1" bus1="UC237167.2.4" phases=1 conn=delta model=2 kv=0.22 kw = 0.1387699888883521 pf=0.92 status=variable vmaxpu=1.5 vminpu=0.93 daily="RU5_SA" 
New "Load.BT_237167_M2" bus1="UC237167.2.4" phases=1 conn=delta model=3 kv=0.22 kw = 0.1387699888883521 pf=0.92 status=variable vmaxpu=1.5 vminpu=0.93 daily="RU5_SA"
 
New "Load.BT_236486_M1" bus1="UC236486.1.4" phases=1 conn=delta model=2 kv=0.22 kw = 0.1961439305542648 pf=0.92 status=variable vmaxpu=1.5 vminpu=0.93 daily="RU6_SA" 
New "Load.BT_236486_M2" bus1="UC236486.1.4" phases=1 conn=delta model=3 kv=0.22 kw = 0.1961439305542648 pf=0.92 status=variable vmaxpu=1.5 vminpu=0.93 daily="RU6_SA"
 
New "Load.BT_2836677_M1" bus1="UC2836677.1.4" phases=1 conn=delta model=2 kv=0.22 kw = 0.049132665665971166 pf=0.92 status=variable vmaxpu=1.5 vminpu=0.93 daily="RU2_SA" 
New "Load.BT_2836677_M2" bus1="UC2836677.1.4" phases=1 conn=delta model=3 kv=0.22 kw = 0.049132665665971166 pf=0.92 status=variable vmaxpu=1.5 vminpu=0.93 daily="RU2_SA"
 
New "Load.BT_2836674_M1" bus1="UC2836674.2.4" phases=1 conn=delta model=2 kv=0.22 kw = 0.0 pf=0.92 status=variable vmaxpu=1.5 vminpu=0.93 daily="RU6_SA" 
New "Load.BT_2836674_M2" bus1="UC2836674.2.4" phases=1 conn=delta model=3 kv=0.22 kw = 0.0 pf=0.92 status=variable vmaxpu=1.5 vminpu=0.93 daily="RU6_SA"
 
New "Load.BT_235585_M1" bus1="UC235585.1.2.4" phases=2 conn=delta model=2 kv=0.44 kw = 0.8106368038990943 pf=0.92 status=variable vmaxpu=1.5 vminpu=0.93 daily="RU6_SA" 
New "Load.BT_235585_M2" bus1="UC235585.1.2.4" phases=2 conn=delta model=3 kv=0.44 kw = 0.8106368038990943 pf=0.92 status=variable vmaxpu=1.5 vminpu=0.93 daily="RU6_SA"
 
New "Load.BT_2805422_M1" bus1="UC2805422.1.2.4" phases=2 conn=delta model=2 kv=0.44 kw = 0.022377991037869395 pf=0.92 status=variable vmaxpu=1.5 vminpu=0.93 daily="CO3_SA" 
New "Load.BT_2805422_M2" bus1="UC2805422.1.2.4" phases=2 conn=delta model=3 kv=0.44 kw = 0.022377991037869395 pf=0.92 status=variable vmaxpu=1.5 vminpu=0.93 daily="CO3_SA"
 
New "Load.BT_2835970_M1" bus1="UC2835970.1.4" phases=1 conn=delta model=2 kv=0.22 kw = 0.04281560865177488 pf=0.92 status=variable vmaxpu=1.5 vminpu=0.93 daily="RU2_SA" 
New "Load.BT_2835970_M2" bus1="UC2835970.1.4" phases=1 conn=delta model=3 kv=0.22 kw = 0.04281560865177488 pf=0.92 status=variable vmaxpu=1.5 vminpu=0.93 daily="RU2_SA"
 
New "Load.BT_236232_M1" bus1="UC236232.1.2.3.4" phases=3 conn=delta model=2 kv=0.38 kw = 0.2311436194437944 pf=0.92 status=variable vmaxpu=1.5 vminpu=0.93 daily="RU3_SA" 
New "Load.BT_236232_M2" bus1="UC236232.1.2.3.4" phases=3 conn=delta model=3 kv=0.38 kw = 0.2311436194437944 pf=0.92 status=variable vmaxpu=1.5 vminpu=0.93 daily="RU3_SA"
 
New "Load.BT_205652_M1" bus1="UC205652.1.4" phases=1 conn=delta model=2 kv=0.22 kw = 0.19685975167882505 pf=0.92 status=variable vmaxpu=1.5 vminpu=0.93 daily="RU5_SA" 
New "Load.BT_205652_M2" bus1="UC205652.1.4" phases=1 conn=delta model=3 kv=0.22 kw = 0.19685975167882505 pf=0.92 status=variable vmaxpu=1.5 vminpu=0.93 daily="RU5_SA"
 
New "Load.BT_205761_M1" bus1="UC205761.1.2.3.4" phases=3 conn=delta model=2 kv=0.38 kw = 0.8868097165624989 pf=0.92 status=variable vmaxpu=1.5 vminpu=0.93 daily="RU8_SA" 
New "Load.BT_205761_M2" bus1="UC205761.1.2.3.4" phases=3 conn=delta model=3 kv=0.38 kw = 0.8868097165624989 pf=0.92 status=variable vmaxpu=1.5 vminpu=0.93 daily="RU8_SA"
 
New "Load.BT_225860_M1" bus1="UC225860.2.4" phases=1 conn=delta model=2 kv=0.22 kw = 0.2057852242387138 pf=0.92 status=variable vmaxpu=1.5 vminpu=0.93 daily="RE8_SA" 
New "Load.BT_225860_M2" bus1="UC225860.2.4" phases=1 conn=delta model=3 kv=0.22 kw = 0.2057852242387138 pf=0.92 status=variable vmaxpu=1.5 vminpu=0.93 daily="RE8_SA"
 
New "Load.BT_235692_M1" bus1="UC235692.1.4" phases=1 conn=delta model=2 kv=0.22 kw = 0.061321446707668016 pf=0.92 status=variable vmaxpu=1.5 vminpu=0.93 daily="RE7_SA" 
New "Load.BT_235692_M2" bus1="UC235692.1.4" phases=1 conn=delta model=3 kv=0.22 kw = 0.061321446707668016 pf=0.92 status=variable vmaxpu=1.5 vminpu=0.93 daily="RE7_SA"
 
New "Load.BT_235691_M1" bus1="UC235691.2.4" phases=1 conn=delta model=2 kv=0.22 kw = 0.07136527496493222 pf=0.92 status=variable vmaxpu=1.5 vminpu=0.93 daily="RU4_SA" 
...